12
C6H6 Benzene 71432
C          0.00000        1.39070        0.00000
C          1.20440        0.69540        0.00000
C          1.20440       -0.69540        0.00000
C          0.00000       -1.39070        0.00000
C         -1.20440       -0.69540        0.00000
C         -1.20440        0.69540        0.00000
H          0.00000        2.47280        0.00000
H          2.14150        1.23640        0.00000
H          2.14150       -1.23640        0.00000
H          0.00000       -2.47280        0.00000
H         -2.14150       -1.23640        0.00000
H         -2.14150        1.23640        0.00000
